Test_Feeder/Feed1/Loads.txt
New Load.LOAD11 Phases=1 Bus1=134.1 kV=0.23 kW=1 PF=0.95 Yearly=Shape_1
New Load.LOAD12 Phases=1 Bus1=147.2 kV=0.23 kW=1 PF=0.95 Yearly=Shape_2
New Load.LOAD13 Phases=1 Bus1=170.1 kV=0.23 kW=1 PF=0.95 Yearly=Shape_3
New Load.LOAD14 Phases=1 Bus1=173.1 kV=0.23 kW=1 PF=0.95 Yearly=Shape_4
New Load.LOAD15 Phases=1 Bus1=174.1 kV=0.23 kW=1 PF=0.95 Yearly=Shape_5
New Load.LOAD16 Phases=1 Bus1=183.2 kV=0.23 kW=1 PF=0.95 Yearly=Shape_6
New Load.LOAD17 Phases=1 Bus1=1178.2 kV=0.23 kW=1 PF=0.95 Yearly=Shape_7
New Load.LOAD18 Phases=1 Bus1=1208.3 kV=0.23 kW=1 PF=0.95 Yearly=Shape_8
New Load.LOAD19 Phases=1 Bus1=1225.1 kV=0.23 kW=1 PF=0.95 Yearly=Shape_9
New Load.LOAD110 Phases=1 Bus1=1248.2 kV=0.23 kW=1 PF=0.95 Yearly=Shape_10
New Load.LOAD111 Phases=1 Bus1=1249.2 kV=0.23 kW=1 PF=0.95 Yearly=Shape_11
New Load.LOAD112 Phases=1 Bus1=1264.3 kV=0.23 kW=1 PF=0.95 Yearly=Shape_12
New Load.LOAD113 Phases=1 Bus1=1276.2 kV=0.23 kW=1 PF=0.95 Yearly=Shape_13
New Load.LOAD114 Phases=1 Bus1=1289.1 kV=0.23 kW=1 PF=0.95 Yearly=Shape_14
New Load.LOAD115 Phases=1 Bus1=1314.2 kV=0.23 kW=1 PF=0.95 Yearly=Shape_15
New Load.LOAD116 Phases=1 Bus1=1320.3 kV=0.23 kW=1 PF=0.95 Yearly=Shape_16
New Load.LOAD117 Phases=1 Bus1=1327.3 kV=0.23 kW=1 PF=0.95 Yearly=Shape_17
New Load.LOAD118 Phases=1 Bus1=1337.3 kV=0.23 kW=1 PF=0.95 Yearly=Shape_18
New Load.LOAD119 Phases=1 Bus1=1342.3 kV=0.23 kW=1 PF=0.95 Yearly=Shape_19
New Load.LOAD120 Phases=1 Bus1=1349.1 kV=0.23 kW=1 PF=0.95 Yearly=Shape_20
New Load.LOAD121 Phases=1 Bus1=1387.1 kV=0.23 kW=1 PF=0.95 Yearly=Shape_21
New Load.LOAD122 Phases=1 Bus1=1388.1 kV=0.23 kW=1 PF=0.95 Yearly=Shape_22
New Load.LOAD123 Phases=1 Bus1=1406.2 kV=0.23 kW=1 PF=0.95 Yearly=Shape_23
New Load.LOAD124 Phases=1 Bus1=1458.3 kV=0.23 kW=1 PF=0.95 Yearly=Shape_24
New Load.LOAD125 Phases=1 Bus1=1502.1 kV=0.23 kW=1 PF=0.95 Yearly=Shape_25
New Load.LOAD126 Phases=1 Bus1=1522.2 kV=0.23 kW=1 PF=0.95 Yearly=Shape_26
New Load.LOAD127 Phases=1 Bus1=1539.3 kV=0.23 kW=1 PF=0.95 Yearly=Shape_27
New Load.LOAD128 Phases=1 Bus1=1556.3 kV=0.23 kW=1 PF=0.95 Yearly=Shape_28
New Load.LOAD129 Phases=1 Bus1=1562.1 kV=0.23 kW=1 PF=0.95 Yearly=Shape_29
New Load.LOAD130 Phases=1 Bus1=1563.1 kV=0.23 kW=1 PF=0.95 Yearly=Shape_30
New Load.LOAD131 Phases=1 Bus1=1611.1 kV=0.23 kW=1 PF=0.95 Yearly=Shape_31
New Load.LOAD132 Phases=1 Bus1=1614.3 kV=0.23 kW=1 PF=0.95 Yearly=Shape_32
New Load.LOAD133 Phases=1 Bus1=1619.3 kV=0.23 kW=1 PF=0.95 Yearly=Shape_33
New Load.LOAD134 Phases=1 Bus1=1629.1 kV=0.23 kW=1 PF=0.95 Yearly=Shape_34
New Load.LOAD135 Phases=1 Bus1=1639.2 kV=0.23 kW=1 PF=0.95 Yearly=Shape_35
New Load.LOAD136 Phases=1 Bus1=1676.2 kV=0.23 kW=1 PF=0.95 Yearly=Shape_36
New Load.LOAD137 Phases=1 Bus1=1682.2 kV=0.23 kW=1 PF=0.95 Yearly=Shape_37
New Load.LOAD138 Phases=1 Bus1=1688.2 kV=0.23 kW=1 PF=0.95 Yearly=Shape_38
New Load.LOAD139 Phases=1 Bus1=1701.3 kV=0.23 kW=1 PF=0.95 Yearly=Shape_39
New Load.LOAD140 Phases=1 Bus1=1702.2 kV=0.23 kW=1 PF=0.95 Yearly=Shape_40
New Load.LOAD141 Phases=1 Bus1=1755.2 kV=0.23 kW=1 PF=0.95 Yearly=Shape_41
New Load.LOAD142 Phases=1 Bus1=1778.3 kV=0.23 kW=1 PF=0.95 Yearly=Shape_42
New Load.LOAD143 Phases=1 Bus1=1780.3 kV=0.23 kW=1 PF=0.95 Yearly=Shape_43
New Load.LOAD144 Phases=1 Bus1=1785.2 kV=0.23 kW=1 PF=0.95 Yearly=Shape_44
New Load.LOAD145 Phases=1 Bus1=1813.2 kV=0.23 kW=1 PF=0.95 Yearly=Shape_45
New Load.LOAD146 Phases=1 Bus1=1817.1 kV=0.23 kW=1 PF=0.95 Yearly=Shape_46
New Load.LOAD147 Phases=1 Bus1=1835.3 kV=0.23 kW=1 PF=0.95 Yearly=Shape_47
New Load.LOAD148 Phases=1 Bus1=1860.1 kV=0.23 kW=1 PF=0.95 Yearly=Shape_48
New Load.LOAD149 Phases=1 Bus1=1861.1 kV=0.23 kW=1 PF=0.95 Yearly=Shape_49
New Load.LOAD150 Phases=1 Bus1=1886.2 kV=0.23 kW=1 PF=0.95 Yearly=Shape_50
New Load.LOAD151 Phases=1 Bus1=1896.1 kV=0.23 kW=1 PF=0.95 Yearly=Shape_51
New Load.LOAD152 Phases=1 Bus1=1898.1 kV=0.23 kW=1 PF=0.95 Yearly=Shape_52
New Load.LOAD153 Phases=1 Bus1=1899.2 kV=0.23 kW=1 PF=0.95 Yearly=Shape_53
New Load.LOAD154 Phases=1 Bus1=1900.1 kV=0.23 kW=1 PF=0.95 Yearly=Shape_54
New Load.LOAD155 Phases=1 Bus1=1906.1 kV=0.23 kW=1 PF=0.95 Yearly=Shape_55
